%chk=manual_displacement_opt.chk
#p CIS(Root=1)/STO-3G geom=connectivity Density=Current Opt

Manually displaced excited state geometry re-optimized in search of a minimal energy structure.

0 1
 C                 -0.07840000    0.00000000   -0.58689400
 H                  0.34300000   -0.94278800   -1.11029600
 H                  0.34300000    0.94278800   -1.11029600
 O                  0.01960000    0.00000000    0.71774500

 1 2 1.0 3 1.0 4 1.5
 2
 3
 4

--Link1--
%oldchk=manual_displacement_opt.chk
%chk=manual_displacement_freq.chk

#p CIS(Root=1)/STO-3G geom=check Density=Current Freq

Frequency calculation for re-optimized first excited state structure.

0 1
