%oldchk=/rds/general/user/rk820/home/dibs-g16/fc_ht/exercise_8-7/DPB_gs_opt_cpu.chk
%chk=/rds/general/user/rk820/home/dibs-g16/fc_ht/exercise_8-7/DPB_TD_cpu.chk
%NProcShared=32
%Mem=110GB

# cam-b3lyp/tzvp td=(nstates=5) geom=check

Time dependent DFT on DPB's ground state to find first 5 excited states. Will be followed by Opt and Freq later.

0 1

