%chk=/rds/general/user/rk820/home/dibs-g16/fc_ht/project/Perylene1-1.chk
%NProcShared=128
%Mem=900GB

#p B3LYP/Def2TZVPP Freq(ReadFC, FC, ReadFCHT) NoSymm geom=check guess=read 

FC analysis for perylene, investigating the S1 PES and simulating the absorption spectrum.

0 1

SpecHwHm=400 SpecRes=20 InpDEner=0.0965

/rds/general/user/rk820/home/dibs-g16/fc_ht/project/Perylene1-2.chk

--Link1--
%chk=/rds/general/user/rk820/home/dibs-g16/fc_ht/project/Perylene1-1.chk
%NProcShared=128
%Mem=900GB

#p B3LYP/Def2TZVPP Freq(ReadFC, FC, ReadFCHT) NoSymm geom=check guess=read

FC analysis for perylene, simulating the emission spectrum.

0 1

SpecHwHm=400 SpecRes=20 InpDEner=0.0965

/rds/general/user/rk820/home/dibs-g16/fc_ht/project/Perylene1-2.chk

