%chk

#geom=connectivity

Structure from 2020 paper

0 1
 C                  2.8668873    2.4077448    0.0000000
 C                  3.5525309    1.2252054    0.0000000
 C                  1.4682139    2.4115857    0.0000000
 C                  0.7338249    1.2409869    0.0000000
 C                  1.4306652    0.0000000    0.0000000
 C                  2.8552412    0.0000000    0.0000000
 C                  0.7338249   -1.2409869    0.0000000
 C                  1.4682139   -2.4115857    0.0000000
 C                  3.5525309   -1.2252054    0.0000000
 C                  2.8668873   -2.4077448    0.0000000
 C                 -0.7338249    1.2409869    0.0000000
 C                 -1.4306652    0.0000000    0.0000000
 C                 -0.7338249   -1.2409869    0.0000000
 C                 -1.4682139    2.4115857    0.0000000
 C                 -2.8668873    2.4077448    0.0000000
 C                 -3.5525309    1.2252054    0.0000000
 C                 -2.8552412    0.0000000    0.0000000
 C                 -3.5525309   -1.2252054    0.0000000
 C                 -2.8668873   -2.4077448    0.0000000
 C                 -1.4682139   -2.4115857    0.0000000
 H                  0.9644862    3.3683652    0.0000000
 H                  3.4009521    3.3503858    0.0000000
 H                  4.6363974    1.2100794    0.0000000
 H                  4.6363974   -1.2100794    0.0000000
 H                  3.4009521   -3.3503858    0.0000000
 H                  0.9644862   -3.3683652    0.0000000
 H                 -0.9644862    3.3683652    0.0000000
 H                 -3.4009521    3.3503858    0.0000000
 H                 -4.6363974    1.2100794    0.0000000
 H                 -0.9644862   -3.3683652    0.0000000
 H                 -4.6363974   -1.2100794    0.0000000
 H                 -3.4009521   -3.3503858    0.0000000

