%chk=/rds/general/user/rk820/home/ground_to_excited_state_test/1_C5H5CN_CAM-B3LYP.chk
# CAM-B3LYP/6-31+G(d) Opt Freq

Ground State Calculation for 1_C5H5CN in CAM-B3LYP/6-31+Gd

0 1
 C                  0.18547668   -1.75740879    0.17372570
 H                  1.30365168   -1.75740879    0.17372570
 H                 -0.17568632   -0.69923279    0.17372570
 C                 -0.36158532   -2.52304779   -1.00619530
 C                 -1.10905332   -3.56799779   -0.56214130
 H                 -1.64066832   -4.31139479   -1.15439630
 C                 -0.36166432   -2.52302479    1.35361470
 H                 -0.15117832   -2.22882079    2.37932870
 C                 -1.10913332   -3.56798579    0.90963470
 H                 -1.64075032   -4.31128779    1.50203870
 C                 -0.06347675   -2.10640486   -2.45848313
 N                  0.15847864   -1.79619527   -3.53977744

 1 2 1.0 3 1.0 4 1.0 7 1.0
 2
 3
 4 5 2.0 11 1.0
 5 6 1.0 9 1.0
 6
 7 8 1.0 9 2.0
 8
 9 10 1.0
 10
 11 12 3.0
 12

--Link1--
%oldchk=/rds/general/user/rk820/home/ground_to_excited_state_test/1_C5H5CN_CAM-B3LYP.chk
%chk=/rds/general/user/rk820/home/ground_to_excited_state_test/excited_state.chk
#p td=(nstates=5) cam-b3lyp/6-31+G(d) geom=check guess=read

Excited State Calculation for Herzberg-Teller Analysis

0 1

