%chk=p_def2_1-1.chk
%NProcShared=64
%Mem=256GB

#p B3LYP/Def2TZVPP geom=connectivity opt freq

Ground state geometry optimization and frequency calculation of perylene.

0 1
 C                 -1.20568994   -3.39753498   -0.00015147
 C                  0.21957206   -3.39753498   -0.00015147
 C                  0.90215006   -2.16528398   -0.00015147
 C                  0.16572306   -0.94050298    0.00002453
 C                 -1.24272494   -0.96551498   -0.00008847
 C                 -1.91110494   -2.22433998   -0.00014847
 C                  2.33104206   -2.13990998   -0.00010347
 C                  0.85820006    0.30963902    0.00039253
 C                  2.28709706    0.33502402    0.00078653
 C                  3.02351806   -0.88975498    0.00049653
 C                  2.96964706    1.56728002    0.00152753
 C                  0.13230706    1.51688602    0.00060353
 C                 -1.29205594    1.46630302    0.00029353
 C                 -1.95536994    0.26879002   -0.00001247
 H                 -3.05565094    0.23636402   -0.00016347
 H                 -1.84819294    2.41624002    0.00036253
 H                 -1.72775694   -4.36661598   -0.00015747
 H                 -3.01184094   -2.23099398   -0.00014647
 C                  3.05692206   -3.34714798   -0.00052947
 C                  4.48128806   -3.29656198   -0.00049647
 C                  5.14460306   -2.09904998    0.00034753
 C                  4.43195506   -0.86475198    0.00090453
 H                  5.03742006   -4.24649298   -0.00099347
 H                  6.24488306   -2.06661998    0.00059753
 C                  4.39490906    1.56728502    0.00232053
 H                  4.91697306    2.53638602    0.00332753
 C                  5.10033206    0.39408502    0.00191253
 H                  6.20107206    0.40076802    0.00235953
 H                  0.86078538   -4.29131653   -0.00026923
 H                  2.50693000   -4.29978050   -0.00064138
 H                  0.68229354    2.46952168    0.00101721
 H                  2.38617677    2.49978332    0.00164561

 1 2 1.5 6 2.0 17 1.0
 2 3 1.5 29 1.0
 3 4 1.5 7 1.5
 4 5 1.5 8 1.5
 5 6 1.5 14 1.5
 6 18 1.0
 7 10 1.5 19 1.5
 8 9 1.5 12 1.5
 9 10 1.5 11 1.5
 10 22 1.5
 11 25 1.5 32 1.0
 12 13 1.5 31 1.0
 13 14 2.0 16 1.0
 14 15 1.0
 15
 16
 17
 18
 19 20 1.5 30 1.0
 20 21 2.0 23 1.0
 21 22 1.5 24 1.0
 22 27 1.5
 23
 24
 25 26 1.0 27 2.0
 26
 27 28 1.0
 28
 29
 30
 31
 32

--Link1--
%oldchk=p_def2_1-1.chk
%chk=p_def2_1-2.chk
%NProcShared=64
%Mem=256GB

#p B3LYP/Def2TZVPP TD=(NStates=2, Root=1) geom=check guess=read opt freq=savenormalmodes

One point excitation calculation for the perylene molecule, followed by the excited state geometry optimization.

0 1

--Link1--
%chk=p_def2_1-1.chk
%NProcShared=64
%Mem=256GB

#p B3LYP/Def2TZVPP Freq(ReadFC, FC, ReadFCHT) geom=check guess=read 

FC analysis for perylene, investigating the S1 PES and simulating the absorption spectrum.

0 1

SpecHwHm=50 SpecRes=20 InpDEner=0.0965 Print=(Spectra=All,Matrix=JK) TimeDependent

p_def2_1-2.chk

--Link1--
%chk=p_def2_1-1.chk
%NProcShared=64
%Mem=256GB

#p B3LYP/Def2TZVPP Freq(ReadFC, FC, ReadFCHT, emission) geom=check guess=read 

FC analysis for perylene, investigating the S1 PES and simulating the emission spectrum.

0 1

SpecHwHm=50 SpecRes=20 InpDEner=0.0965 Print=(Spectra=All,Matrix=JK) TimeDependent

p_def2_1-2.chk

--Link1--
%chk=p_def2_1-1.chk
%NProcShared=64
%Mem=256GB

#p B3LYP/Def2TZVPP Freq(ReadFC, FCHT, ReadFCHT) geom=check guess=read

FC analysis for perylene, simulating the absorption spectrum.

0 1

SpecHwHm=50 SpecRes=20 InpDEner=0.0965 Print=(Spectra=All,Matrix=JK) TimeDependent

p_def2_1-2.chk

--Link1--
%chk=p_def2_1-1.chk
%NProcShared=64
%Mem=256GB

#p B3LYP/Def2TZVPP Freq(ReadFC, FCHT, ReadFCHT, emission) geom=check guess=read 

FC analysis for perylene, investigating the S1 PES and simulating the emission spectrum.

0 1

SpecHwHm=50 SpecRes=20 InpDEner=0.0965 Print=(Spectra=All,Matrix=JK) TimeDependent

p_def2_1-2.chk

