%oldchk=/rds/general/user/rk820/home/dibs-g16/fc_ht/formaldehyde/formaldehyde.chk
%chk=/rds/general/user/rk820/home/dibs-g16/fc_ht/formaldehyde/formaldehyde_es_CAM-B3LYP.chk

#p CAM-B3LYP/TZVP TD=(nstates=2) geom=check Density=Current opt

HF/STO-3G for formaldehyde, calculating the first two excited states and optimizing its geometry.

0 1

