%chk=formaldehyde_CAM-B3LYP.chk

# CAM-B3LYP/TZVP geom=connectivity Opt Freq

Ground state optimization and frequency calculation for formaldehyde

0 1
 C                 -0.52226814   -0.40421304    0.00000000
 H                  0.01290043   -1.33076287    0.00000000
 H                 -1.59226812   -0.40440770    0.00000000
 O                  0.10673358    0.68570778    0.00000000

 1 2 1.0 3 1.0 4 2.0
 2
 3
 4
