%chk=/rds/general/user/rk820/home/dibs-g16/fc_ht/formaldehyde/formaldehyde.chk
# hf/sto-3g geom=connectivity Opt Freq
#NProcShared=1
#Mem=6GB

Ground state optimization and frequency calculation for formaldehyde

0 1
 C                 -0.52226814   -0.40421304    0.00000000
 H                  0.01290043   -1.33076287    0.00000000
 H                 -1.59226812   -0.40440770    0.00000000
 O                  0.10673358    0.68570778    0.00000000

 1 2 1.0 3 1.0 4 2.0
 2
 3
 4

