%chk=az_s0.chk
%NProcShared=32
%Mem=256GB

#p CAM-B3LYP/def2tzvp geom=connectivity opt freq

Investigation of Azulene step 1: ground state optimization and frequency calculation.

0 1
 C                 -1.58497059    0.63829786   -0.02074840
 C                 -0.22424059    0.63829786   -0.02074840
 C                  0.66448441    1.74038486   -0.02074840
 C                 -2.48976959    1.72721786   -0.01994340
 C                  0.35714841    3.06165786   -0.02047840
 C                 -2.22894059    3.06186486   -0.01905540
 C                 -0.97675759    3.71266886   -0.01938840
 H                 -2.07564859   -0.35731714   -0.02132740
 H                  0.27377541   -0.35184314   -0.02108640
 H                  1.74174441    1.47499686   -0.02116140
 H                 -3.55811459    1.43150486   -0.01984240
 H                 -3.10187859    3.74702786   -0.01817440
 C                  1.32864141    4.14822586   -0.02081640
 H                  2.40547741    3.99498986   -0.02181140
 C                  0.64867541    5.34989486   -0.01982840
 H                  1.08551641    6.34769086   -0.01977240
 C                 -0.77223559    5.08940486   -0.01893540
 H                 -1.54128359    5.85865586   -0.01800340

 1 2 2.0 4 1.5 8 1.0
 2 3 1.5 9 1.0
 3 5 2.0 10 1.0
 4 6 2.0 11 1.0
 5 7 1.0 13 1.0
 6 7 1.5 12 1.0
 7 17 1.5
 8
 9
 10
 11
 12
 13 14 1.0 15 2.0
 14
 15 16 1.0 17 1.5
 16
 17 18 1.0
 18

--Link1--
%oldchk=az_s0.chk
%chk=az_s1.chk
%NProcShared=32
%Mem=256GB

#p CAM-B3LYP/def2TZVP TD=(nstates=3, Root=1) geom=check density=current opt freq=savenormalmodes

Azulene S1

0 1

--Link1--
%oldchk=az_s0.chk
%chk=az_s2.chk
%NProcShared=32
%Mem=256GB

#p CAM-B3LYP/def2TZVP TD=(nstates=3, Root=2) geom=check density=current opt freq=savenormalmodes

Azulene S2

0 1

--Link1--
%chk=az_s0.chk
%NProcShared=32
%Mem=256GB

#p CAM-B3LYP/TZVP Freq(ReadFC, FC, ReadFCHT) NoSymm geom=check guess=read 

FC analysis of Azulene S0-s2 absorption.

0 1

SpecHwHm=30 SpecRes=20 InpDEner=
