%chk=/rds/general/user/rk820/home/dibs-g16/fc_ht/exercise_8-7/DPB_gs.chk
# B3LYP/TZVP Opt Freq

Ground state calculation for DPB molecule, later to be used for excited state and FC-HT analysis.

0 1
 C                 -1.86233081    1.27552915   -0.93454402
 C                 -0.90555226    1.67825266    0.00689665
 C                 -0.94967486    2.97319856    0.54083511
 C                 -1.95057572    3.86542110    0.13333253
 C                 -2.90735371    3.46269791   -0.80810885
 C                 -2.86323149    2.16775179   -1.34204682
 H                 -1.82864184    0.28680943   -1.34221837
 H                 -0.14134118    0.99702152    0.31803259
 H                 -0.21915323    3.28068688    1.25964598
 H                 -3.67156407    4.14392943   -1.11924568
 H                 -3.59375412    1.86026292   -2.06085645
 C                 -1.99906239    5.28843841    0.72007846
 H                 -2.93287407    5.43598110    1.22120411
 H                 -1.19666336    5.41457142    1.41660287
 C                 -1.87107156    6.22494571   -0.31456852
 H                 -2.73973400    6.84918448   -0.34009349
 H                 -1.77223354    5.71292196   -1.24889327
 C                 -0.62245069    7.09256888   -0.07007728
 H                 -0.14180903    6.77941083    0.83314785
 H                  0.05475284    6.98243119   -0.89115283
 C                 -1.00265828    8.43650470    0.04481685
 H                 -0.71554791    8.80742987    1.00652479
 H                 -2.06373784    8.51775883   -0.06657412
 C                 -0.30653188    9.26255714   -1.05274654
 C                  0.54957633   10.31481666   -0.70096451
 C                 -0.52916506    8.96200534   -2.40331125
 C                  1.18305230   11.06652361   -1.69974718
 H                  0.71956199   10.54429439    0.33022162
 C                  0.10430927    9.71371363   -3.40209395
 H                 -1.18282145    8.15858084   -2.67190462
 C                  0.96041732   10.76597328   -3.05031192
 H                  1.83671039   11.86994672   -1.43115378
 H                 -0.06567692    9.48423634   -4.43328009
 H                  1.44409120   11.33991747   -3.81290464

 1 2 1.5 6 1.5 7 1.0
 2 3 1.5 8 1.0
 3 4 1.5 9 1.0
 4 5 1.5 12 1.0
 5 6 1.5 10 1.0
 6 11 1.0
 7
 8
 9
 10
 11
 12 13 1.0 14 1.0 15 1.5
 13
 14
 15 16 1.0 17 1.0 18 1.0
 16
 17
 18 19 1.0 20 1.0 21 1.5
 19
 20
 21 22 1.0 23 1.0 24 1.0
 22
 23
 24 25 1.5 26 1.5
 25 27 1.5 28 1.0
 26 29 1.5 30 1.0
 27 31 1.5 32 1.0
 28
 29 31 1.5 33 1.0
 30
 31 34 1.0
 32
 33
 34

