%chk

#geom=connectivity

Structure from 2020 paper

0 1
C                  2.8418074    2.4268137    0.0000000
C                  3.5326923    1.2258160    0.0000000
C                  1.4618428    2.4407514    0.0000000
C                  0.7167015    1.2363176    0.0000000
C                  1.4157889    0.0000000    0.0000000
C                  2.8420890    0.0000000    0.0000000
C                  0.7167015   -1.2363176    0.0000000
C                  1.4618428   -2.4407514    0.0000000
C                  3.5326923   -1.2258160    0.0000000
C                  2.8418074   -2.4268137    0.0000000
C                 -0.7167015    1.2363176    0.0000000
C                 -1.4157889    0.0000000    0.0000000
C                 -0.7167015   -1.2363176    0.0000000
C                 -1.4618428    2.4407514    0.0000000
C                 -2.8418074    2.4268137    0.0000000
C                 -3.5326923    1.2258160    0.0000000
C                 -2.8420890    0.0000000    0.0000000
C                 -3.5326923   -1.2258160    0.0000000
C                 -2.8418074   -2.4268137    0.0000000
C                 -1.4618428   -2.4407514    0.0000000
H                  0.9509013    3.3926250    0.0000000
H                  3.3872937    3.3629626    0.0000000
H                  4.6165976    1.2159670    0.0000000
H                  4.6165976   -1.2159670    0.0000000
H                  3.3872937   -3.3629626    0.0000000
H                  0.9509013   -3.3926250    0.0000000
H                 -0.9509013    3.3926250    0.0000000
H                 -3.3872937    3.3629626    0.0000000
H                 -4.6165976    1.2159670    0.0000000
H                 -0.9509013   -3.3926250    0.0000000
H                 -4.6165976   -1.2159670    0.0000000
H                 -3.3872937   -3.3629626    0.0000000
